@<TRIPOS>MOLECULE
CSD
   13    12     1     0     0
SMALL
bcc


@<TRIPOS>ATOM
      1 N            3.6030    -2.5150    27.1490 n3       272 CSD      -0.328000
      2 CA           4.9720    -2.5430    27.6540 c3       272 CSD      -0.029000
      3 CB           5.9720    -3.2020    26.6600 c3       272 CSD      -0.707000
      4 SG           7.1960    -4.4000    27.1940 s4       272 CSD       0.714800
      5 C            5.4140    -1.0890    27.9580 c1       272 CSD       0.313000
      6 O            6.1720    -0.8900    28.9220 o        272 CSD      -0.252000
      7 OD1          7.9520    -5.0920    26.0710 o        272 CSD      -0.240900
      8 OD2          7.8090    -3.7070    28.2880 o        272 CSD      -0.240900
      9 HB3          5.4400    -3.6330    25.9730 h1       272 CSD       0.145000
     10 HB2          6.4570    -2.4790    26.2310 h1       272 CSD       0.145000
     11 HA           4.9830    -3.0870    28.4570 h1       272 CSD       0.143000
     12 H2           2.9760    -2.1700    27.6260 hn       272 CSD       0.169000
     13 H            3.4240    -2.8430    26.3750 hn       272 CSD       0.169000
@<TRIPOS>BOND
     1     1     2 1   
     2     1    12 1   
     3     1    13 1   
     4     2     3 1   
     5     2     5 1   
     6     2    11 1   
     7     3     4 1   
     8     3     9 1   
     9     3    10 1   
    10     4     7 1   
    11     4     8 1   
    12     5     6 1   
@<TRIPOS>SUBSTRUCTURE
     1 CSD         1 TEMP              0 ****  ****    0 ROOT
